Cases/case3375wp.py
from numpy import array

def case3375wp():

    ## PYPOWER Case Format : Version 2
    ppc = {'version': '2'}

    ##-----  Power Flow Data  -----##
    ## system MVA base
    ppc['baseMVA'] = 100

    ## bus data
    # bus_i type Pd Qd Gs Bs area Vm Va baseKV zone Vmax Vmin
    ppc['bus'] = array([
        [10000, 1, 0, 0, 0, 0, 0, 1.04687, -10.70488, 400, 0, 1.05, 0.95],
        [10001, 1, 0, 0, 0, 0, 0, 1.04837, -15.04781, 400, 0, 1.05, 0.95],
        [10002, 1, 0, 0, 0, 0, 0, 1.07251, -16.96552, 220, 0, 1.11, 0.95],
        [10003, 1, 0, 0, 0, 0, 0, 1.04525, -17.93119, 400, 0, 1.05, 0.95],
        [10004, 1, 0, 0, 0, 0, 0, 1.04396, -13.97333, 400, 0, 1.05, 0.95],
        [10005, 1, 0, 0, 0, 0, 0, 1.04437, -16.49872, 400, 0, 1.05, 0.95],
        [10006, 1, 0, 0, 0, 0, 0, 1.04078, -9.90352, 400, 0, 1.05, 0.95],
        [10007, 1, 0, 0, 0, 0, 0, 1.07323, -15.91864, 220, 0, 1.11, 0.95],
        [10008, 1, 0, 0, 0, 0, 0, 1.07074, -18.07504, 220, 0, 1.11, 0.95],
        [10009, 1, 0, 0, 0, 0, 0, 1.04438, -17.28051, 400, 0, 1.05, 0.95],
        [10010, 1, 0, 0, 0, 0, 0, 1.04912, -12.07385, 400, 0, 1.05, 0.95],
        [10011, 1, 0, 0, 0, 0, 0, 1.04471, -18.59454, 400, 0, 1.05, 0.95],
        [10012, 1, 0, 0, 0, 0, 0, 1.04471, -18.59454, 400, 0, 1.05, 0.95],
        [10013, 1, 0, 0, 0, 0, 0, 1.04559, -12.19767, 400, 0, 1.05, 0.95],
        [10014, 1, 0, 0, 0, 0, 0, 1.0458, -12.22917, 400, 0, 1.05, 0.95],
        [10015, 1, 0, 0, 0, 0, 0, 1.0447, -18.15425, 400, 0, 1.05, 0.95],
        [10016, 1, 0, 0, 0, 0, 0, 1.04578, -12.11669, 400, 0, 1.05, 0.95],
        [10017, 1, 0, 0, 0, 0, 0, 1.04572, -12.12076, 400, 0, 1.05, 0.95],
        [10018, 1, 0, 0, 0, 0, 0, 1.0457, -12.11351, 400, 0, 1.05, 0.95],
        [10019, 1, 0, 0, 0, 0, 0, 1.0458, -12.2292, 400, 0, 1.05, 0.95],
        [10020, 1, 0, 0, 0, 0, 0, 1.05, -14.07745, 400, 0, 1.05, 0.95],
        [10021, 1, 0, 0, 0, 0, 0, 1.07631, -16.60737, 220, 0, 1.11, 0.95],
        [10022, 1, 0, 0, 0, 0, 0, 1.07483, -17.01984, 220, 0, 1.11, 0.95],
        [10023, 1, 0, 0, 0, 0, 0, 1.04582, -11.75662, 400, 0, 1.05, 0.95],
        [10024, 1, 0, 0, 0, 0, 0, 1.04557, -11.85608, 400, 0, 1.05, 0.95],
        [10025, 1, 0, 0, 0, 0, 0, 1.04573, -11.8032, 400, 0, 1.05, 0.95],
        [10026, 1, 0, 0, 0, 0, 0, 1.04137, -8.03514, 400, 0, 1.05, 0.95],
        [10027, 1, 0, 0, 0, 0, 0, 1.04176, -7.76212, 400, 0, 1.05, 0.95],
        [10028, 1, 0, 0, 0, 0, 0, 1.04187, -7.56465, 400, 0, 1.05, 0.95],
        [10029, 1, 0, 0, 0, 0, 0, 1.04913, -11.5362, 400, 0, 1.05, 0.95],
        [10030, 1, 0, 0, 0, 0, 0, 1.04912, -11.53101, 400, 0, 1.05, 0.95],
        [10031, 1, 0, 0, 0, 0, 0, 1.08683, -11.59324, 220, 0, 1.11, 0.95],
        [10032, 1, 0, 0, 0, 0, 0, 1.04142, -8.05065, 400, 0, 1.05, 0.95],
        [10033, 1, 0, 0, 0, 0, 0, 1.04141, -8.05055, 400, 0, 1.05, 0.95],
        [10034, 1, 0, 0, 0, 0, 0, 1.0426, -14.14929, 400, 0, 1.05, 0.95],
        [10035, 1, 0, 0, 0, 0, 0, 1.07253, -12.37237, 220, 0, 1.11, 0.95],
        [10036, 1, 0, 0, 0, 0, 0, 1.07259, -12.38001, 220, 0, 1.11, 0.95],
        [10037, 1, 0, 0, 0, 0, 0, 1.04141, -8.14861, 400, 0, 1.05, 0.95],
        [10038, 1, 0, 0, 0, 0, 0, 1.04145, -8.15657, 400, 0, 1.05, 0.95],
        [10039, 1, 0, 0, 0, 0, 0, 1.04189, -8.20445, 400, 0, 1.05, 0.95],
        [10040, 1, 0, 0, 0, 0, 0, 1.04506, -12.91957, 400, 0, 1.05, 0.95],
        [10041, 1, 0, 0, 0, 0, 0, 1.04919, -11.66977, 400, 0, 1.05, 0.95],
        [10042, 1, 0, 0, 0, 0, 0, 1.04486, -18.81658, 400, 0, 1.05, 0.95],
        [10043, 1, 0, 0, 0, 0, 0, 1.06595, -14.1772, 220, 0, 1.11, 0.95],
        [10044, 1, 0, 0, 0, 0, 0, 1.07305, -13.3306, 220, 0, 1.11, 0.95],
        [10045, 1, 0, 0, 0, 0, 0, 1.06741, -18.93627, 220, 0, 1.11, 0.95],
        [10046, 1, 0, 0, 0, 0, 0, 1.07479, -17.01935, 220, 0, 1.11, 0.95],
        [10047, 1, 0, 0, 0, 0, 0, 1.04347, -19.72898, 400, 0, 1.05, 0.95],
        [10048, 1, 0, 0, 0, 0, 0, 1.04593, -11.20792, 400, 0, 1.05, 0.95],
        [10049, 1, 0, 0, 0, 0, 0, 1.04881, -11.71874, 400, 0, 1.05, 0.95],
        [10050, 1, 0, 0, 0, 0, 0, 1.04919, -11.66977, 400, 0, 1.05, 0.95],
        [10051, 1, 0, 0, 0, 0, 0, 1.06435, -18.64806, 220, 0, 1.11, 0.95],
        [10052, 1, 0, 0, 0, 0, 0, 1.04276, -16.39521, 400, 0, 1.05, 0.95],
        [10053, 1, 0, 0, 0, 0, 0, 1.08851, -11.03458, 220, 0, 1.11, 0.95],
        [10054, 1, 0, 0, 0, 0, 0, 1.08851, -11.03458, 220, 0, 1.11, 0.95],
        [10055, 1, 0, 0, 0, 0, 0, 1.08025, -14.93844, 220, 0, 1.11, 0.95],
        [10056, 1, 0, 0, 0, 0, 0, 1.04177, -10.15342, 400, 0, 1.05, 0.95],
        [10057, 1, 0, 0, 0, 0, 0, 1.0397, -9.14536, 400, 0, 1.05, 0.95],
        [10058, 1, 0, 0, 0, 0, 0, 1.05983, -16.70686, 220, 0, 1.11, 0.95],
        [10059, 1, 0, 0, 0, 0, 0, 1.05, -15.8165, 400, 0, 1.05, 0.95],
        [10060, 1, 0, 0, 0, 0, 0, 1.04143, -8.15259, 400, 0, 1.05, 0.95],
        [10061, 1, 0, 0, 0, 0, 0, 1.04177, -10.15342, 400, 0, 1.05, 0.95],
        [10062, 1, 0, 0, 0, 0, 0, 1.04302, -15.75403, 400, 0, 1.05, 0.95],
        [10063, 1, 0, 0, 0, 0, 0, 1.04579, -12.22916, 400, 0, 1.05, 0.95],
        [10064, 1, 0, 0, 0, 0, 0, 1.06571, -16.28209, 220, 0, 1.11, 0.95],
        [10065, 1, 0, 0, 0, 0, 0, 1.04673, -13.53303, 400, 0, 1.05, 0.95],
        [10066, 1, 0, 0, 0, 0, 0, 1.04876, -12.21379, 400, 0, 1.05, 0.95],
        [10067, 1, 0, 0, 0, 0, 0, 1.06752, -15.36971, 220, 0, 1.11, 0.95],
        [10068, 1, 0, 0, 0, 0, 0, 1.04901, -13.12103, 400, 0, 1.05, 0.95],
        [10069, 1, 0, 0, 0, 0, 0, 1.06642, -19.22427, 220, 0, 1.11, 0.95],
        [10070, 1, 0, 0, 0, 0, 0, 1.04467, -18.59429, 400, 0, 1.05, 0.95],
        [10071, 2, 16, 8, 0, 0, 0, 1.07617, -15.28959, 220, 0, 1.11, 0.95],
        [10072, 1, 0, 0, 0, 0, 0, 1.08597, -11.76891, 220, 0, 1.11, 0.95],
        [10073, 1, 0, 0, 0, 0, 1, 1.0747, -13.36695, 220, 0, 1.11, 0.95],
        [10074, 1, 0, 0, 0, 0, 0, 1.07385, -13.34281, 220, 0, 1.11, 0.95],
        [10075, 1, 0, 0, 0, 0, 0, 1.07257, -14.1716, 220, 0, 1.11, 0.95],
        [10076, 1, 0, 0, 0, 0, 0, 1.04556, -11.85601, 400, 0, 1.05, 0.95],
        [10077, 1, 0, 0, 0, 0, 0, 1.04556, -11.85601, 400, 0, 1.05, 0.95],
        [10078, 1, 305.5, -14, 0, 0, 0, 1.03456, -8.21584, 400, 0, 1.05, 0.95],
        [10079, 2, -1529.6, 4542.9, 0, 0, 0, 1.01319, -0.05172, 400, 0, 1.05, 0.95],
        [10080, 2, -159.1, -181, 0, 0, 0, 1.02855, -4.88451, 400, 0, 1.05, 0.95],
        [10081, 1, -1078.3, -374.1, 0, 0, 0, 1.03447, -0.91888, 400, 0, 1.05, 0.95],
        [10082, 1, 943.2, 310.2, 0, 0, 0, 1.00371, -4.43737, 400, 0, 1.05, 0.95],
        [10083, 1, 97, 26, 0, 0, 0, 1.04136, -5.54383, 400, 0, 1.05, 0.95],
        [10084, 1, 0.6, 160, 0, 0, 0, 1.04213, -5.41022, 400, 0, 1.05, 0.95],
        [10085, 1, 161.6, 183.6, 0, 0, 0, 1.04114, -5.52506, 400, 0, 1.05, 0.95],
        [10086, 1, 288.6, 221.6, 0, 0, 0, 1.04113, -5.52774, 400, 0, 1.05, 0.95],
        [10087, 1, 0, 0, 0, 0, 0, 1.0431, -5.31775, 400, 0, 1.05, 0.95],
        [10088, 1, 0, 0, 0, 0, 0, 1.08895, -5.62324, 220, 0, 1.11, 0.95],
        [10089, 1, 0, 0, 0, 0, 0, 1.08671, -5.74853, 220, 0, 1.11, 0.95],
        [10090, 2, 274.4, 279.6, 0, 0, 0, 1.04139, -5.51893, 400, 0, 1.05, 0.95],
        [10091, 1, 94.2, 111.8, 0, 0, 0, 1.04083, -5.53521, 400, 0, 1.05, 0.95],
        [10092, 1, 0, 0, 0, 0, 0, 1.0851, -5.81601, 220, 0, 1.11, 0.95],
        [10093, 1, 0, 0, 0, 0, 0, 1.08774, -5.67067, 220, 0, 1.11, 0.95],
        [10094, 2, 0, 0, 0, 0, 0, 1.03526, -4.64081, 400, 0, 1.05, 0.95],
        [10095, 2, 4.4, -2590.1, 0, 0, 0, 1.02969, -6.03574, 400, 0, 1.05, 0.95],
        [10096, 1, 488, 79.1, 0, 0, 0, 1.02127, -6.23895, 400, 0, 1.05, 0.95],
        [10097, 1, 601, 147.9, 0, 0, 0, 1.02468, -6.14923, 400, 0, 1.05, 0.95],
        [10098, 1, 527, 265.1, 0, 0, 0, 1.02591, -5.42562, 400, 0, 1.05, 0.95],
        [10099, 1, 0, 0, 0, 0, 0, 1.00482, -2.42812, 400, 0, 1.05, 0.95],
        [10100, 2, 0, 0, 0, 0, 0, 1.04073, -0.86289, 400, 0, 1.05, 0.95],
        [10101, 1, 0, 0, 0, 0, 0, 1.03993, -13.17887, 220, 0, 1.11, 0.95],
        [10102, 1, 120, 25, 0, 0, 0, 1.0587, -7.39157, 220, 0, 1.11, 0.95],
        [10103, 1, 0, 0, 0, 0, 0, 1.03974, -3.47171, 400, 0, 1.05, 0.95],
        [10104, 2, 200.2, 48.7, 0, 0, 0, 1.04409, -2.35603, 400, 0, 1.05, 0.95],
        [10105, 1, 0, 0, 0, 0, 0, 1.06465, -7.80747, 220, 0, 1.11, 0.95],
        [10106, 1, 0, 0, 0, 0, 0, 1.03444, -4.47152, 400, 0, 1.05, 0.95],
        [10107, 1, 0, 0, 0, 0, 0, 1.04224, -3.12182, 400, 0, 1.05, 0.95],
        [10108, 1, 0, 0, 0, 0, 0, 1.04282, -2.80538, 400, 0, 1.05, 0.95],
        [10109, 1, 0, 0, 0, 0, 0, 1.0422, -3.04523, 400, 0, 1.05, 0.95],
        [10110, 1, 0, 0, 0, 0, 0, 1.0428, -2.72415, 400, 0, 1.05, 0.95],
        [10111, 1, 0, 0, 0, 0, 0, 1.02625, -1.81906, 400, 0, 1.05, 0.95],
        [10112, 1, 0, 0, 0, 0, 0, 1.10809, -5.03261, 220, 0, 1.11, 0.95],
        [10113, 1, 0, 0, 0, 0, 0, 1.01806, -2.51227, 400, 0, 1.05, 0.95],
        [10114, 1, 0, 0, 0, 0, 0, 1.09061, -6.95533, 220, 0, 1.11, 0.95],
        [10115, 2, 0, 0, 0, 0, 0, 1.00234, -2.20727, 400, 0, 1.05, 0.95],
        [10116, 2, 0, 0, 0, 0, 0, 1.00234, -2.20727, 400, 0, 1.05, 0.95],
        [10117, 1, 0, 0, 0, 0, 0, 1.03218, -5.38558, 400, 0, 1.05, 0.95],
        [10118, 2, 0, 0, 0, 0, 0, 1.04097, -0.52486, 400, 0, 1.05, 0.95],
        [10119, 1, 0, 0, 0, 0, 0, 1.01219, -3.2983, 400, 0, 1.05, 0.95],
        [10120, 1, 0, 0, 0, 0, 0, 1.03983, -3.96258, 400, 0, 1.05, 0.95],
        [10121, 1, 80, 20, 0, 0, 0, 1.05717, -6.34415, 220, 0, 1.11, 0.95],
        [10122, 1, 0, 0, 0, 0, 0, 1.05022, -9.78444, 220, 0, 1.11, 0.95],
        [10123, 1, 0, 0, 0, 0, 0, 1.04891, -3.71076, 400, 0, 1.05, 0.95],
        [10124, 1, 0, 0, 0, 0, 0, 1.05, -0.9584, 400, 0, 1.05, 0.95],
        [10125, 1, 0, 0, 0, 0, 0, 1.01317, -4.39221, 400, 0, 1.05, 0.95],
        [10126, 2, 0, 0, 0, 0, 0, 1.00802, -3.54138, 400, 0, 1.05, 0.95],
        [10127, 1, 0, 0, 0, 0, 0, 1.09612, -7.22408, 220, 0, 1.11, 0.95],
        [10128, 1, 0, 0, 0, 0, 0, 1.09612, -7.22408, 220, 0, 1.11, 0.95],
        [10129, 2, 0.2, 100, 0, 0, 0, 1.04538, 0.02453, 400, 0, 1.05, 0.95],
        [10130, 1, 0, 0, 0, 0, 0, 1.04546, -0.00196, 400, 0, 1.05, 0.95],
        [10131, 1, 0, 0, 0, 0, 0, 1.00966, -4.04069, 400, 0, 1.05, 0.95],
        [10132, 2, 0, 0, 0, 0, 0, 1.02908, -4.54928, 400, 0, 1.05, 0.95],
        [10133, 1, 0, 0, 0, 0, 0, 1.05, -4.33366, 400, 0, 1.05, 0.95],
        [10134, 1, 0, 0, 0, 0, 0, 1.04707, -4.96621, 400, 0, 1.05, 0.95],
        [10135, 1, 0, 0, 0, 0, 0, 1.05137, -5.13694, 220, 0, 1.11, 0.95],
        [10136, 1, 0, 0, 0, 0, 0, 1.07164, -7.48745, 220, 0, 1.11, 0.95],
        [10137, 1, 0, 0, 0, 0, 0, 1.03873, -15.98919, 220, 0, 1.11, 0.95],
        [10138, 1, 0, 0, 0, 0, 0, 1.03401, -5.16183, 400, 0, 1.05, 0.95],
        [10139, 2, 0, 0, 0, 0, 0, 1.03742, -1.81786, 400, 0, 1.05, 0.95],
        [10140, 2, 0, 0, 0, 0, 0, 1.03856, -1.33469, 400, 0, 1.05, 0.95],
        [10141, 2, 0, 0, 0, 0, 0, 1.01264, -1.61676, 400, 0, 1.05, 0.95],
        [10142, 1, 0, 0, 0, 0, 0, 1.03744, -4.88394, 400, 0, 1.05, 0.95],
        [10143, 1, 0, 0, 0, 0, 0, 1.03597, -3.0404, 400, 0, 1.05, 0.95],
        [10144, 1, 0, 0, 0, 0, 0, 1.03599, -3.03915, 400, 0, 1.05, 0.95],
        [10145, 1, 0, 0, 0, 0, 0, 1.01027, -3.74196, 400, 0, 1.05, 0.95],
        [10146, 2, 0, 0, 0, 0, 0, 1.04296, -3.5178, 220, 0, 1.11, 0.95],
        [10147, 1, 0, 0, 0, 0, 0, 1.03128, -5.37046, 400, 0, 1.05, 0.95],
        [10148, 1, 0, 0, 0, 0, 0, 1.07357, -7.15426, 220, 0, 1.11, 0.95],
        [10149, 1, 0, 0, 0, 0, 0, 1.07355, -7.15711, 220, 0, 1.11, 0.95],
        [10150, 2, 0, 0, 0, 0, 0, 1.04015, -3.34555, 400, 0, 1.05, 0.95],
        [10151, 1, 0, 0, 0, 0, 0, 1.04146, -3.0972, 400, 0, 1.05, 0.95],
        [10152, 1, 0, 0, 0, 0, 0, 1.04668, -1.42588, 400, 0, 1.05, 0.95],
        [10153, 1, 0, 0, 0, 0, 0, 1.03101, -2.84339, 400, 0, 1.05, 0.95],
        [10154, 1, 80, 20, 0, 0, 0, 1.03599, -4.25547, 220, 0, 1.11, 0.95],
        [10155, 1, 0, 0, 0, 0, 0, 1.08192, -7.36524, 220, 0, 1.11, 0.95],
        [10156, 1, 0, 0, 0, 0, 0, 1.03079, -5.15792, 400, 0, 1.05, 0.95],
        [10157, 1, 0, 0, 0, 0, 0, 1.08715, -5.5406, 220, 0, 1.11, 0.95],
        [10158, 1, 0, 0, 0, 0, 0, 1.01375, -2.96684, 400, 0, 1.05, 0.95],
        [10159, 1, 0, 0, 0, 0, 0, 1.11, -4.89462, 220, 0, 1.11, 0.95],
        [10160, 1, 0, 0, 0, 0, 0, 1.0642, -17.66826, 220, 0, 1.11, 0.95],
        [10161, 1, 0, 0, 0, 0, 0, 1.02091, -4.68112, 400, 0, 1.05, 0.95],
        [10162, 1, 0, 0, 0, 0, 0, 1.05927, -8.90546, 220, 0, 1.11, 0.95],
        [10163, 1, 0, 0, 0, 0, 0, 1.09451, -7.44737, 220, 0, 1.11, 0.95],
        [10164, 1, 0, 0, 0, 0, 0, 1.02895, -4.92842, 400, 0, 1.05, 0.95],
        [10165, 1, 0, 0, 0, 0, 0, 1.03338, -5.57007, 400, 0, 1.05, 0.95],
        [10166, 1, 0, 0, 0, 0, 0, 1.06606, -6.42146, 220, 0, 1.11, 0.95],
        [10167, 1, 0, 0, 0, 0, 0, 1.02906, -5.04152, 400, 0, 1.05, 0.95],
        [10168, 1, 0, 0, 0, 0, 0, 1.02906, -5.04152, 400, 0, 1.05, 0.95],
        [10169, 1, 0, 0, 0, 0, 0, 1.02941, -4.99501, 400, 0, 1.05, 0.95],
        [10170, 1, 0, 0, 0, 0, 0, 1.02941, -4.99501, 400, 0, 1.05, 0.95],
        [10171, 2, -104.8, -159, 0, 0, 0, 1.02955, -4.63616, 400, 0, 1.05, 0.95],
        [10172, 1, 247.4, -57.5, 0, 0, 0, 1.02972, -6.04019, 400, 0, 1.05, 0.95],
        [10173, 1, 247.4, -57.5, 0, 0, 0, 1.02972, -6.04019, 400, 0, 1.05, 0.95],
        [10174, 1, 371.5, 403.5, 0, 0, 0, 1.02061, -6.26044, 400, 0, 1.05, 0.95],
        [10176, 2, -249.9, 162.6, 0, 0, 0, 1.02979, -4.79163, 400, 0, 1.05, 0.95],
        [10177, 2, -249.9, 162.6, 0, 0, 0, 1.02979, -4.79163, 400, 0, 1.05, 0.95],
        [10178, 1, 52.5, 207.2, 0, 0, 0, 1.02727, -10.4183, 400, 0, 1.05, 0.95],
        [10179, 1, 379.5, 54.6, 0, 0, 0, 1.03892, -13.22007, 400, 0, 1.05, 0.95],
        [10180, 1, 73.6, -95.6, 0, 0, 0, 1.08759, -16.75353, 220, 0, 1.11, 0.95],
        [10181, 1, 73.6, -95.6, 0, 0, 0, 1.08759, -16.75353, 220, 0, 1.11, 0.95],
        [10182, 1, 107.2, -44.4, 0, 0, 0, 1.05, -12.71113, 400, 0, 1.05, 0.95],
        [10183, 1, 86, 8, 0, 0, 0, 1.04861, -10.45398, 400, 0, 1.05, 0.95],
        [10184, 1, 70, 49, 0, 0, 0, 1.05073, -14.33097, 220, 0, 1.11, 0.95],
        [10185, 1, 0, 0, 0, 0, 0, 1.04939, -12.67172, 400, 0, 1.05, 0.95],
        [10186, 2, 0, 0, 0, 0, 0, 1.08932, -7.60913, 220, 0, 1.11, 0.95],
        [10187, 2, 0, 0, 0, 0, 0, 1.0894, -7.57617, 220, 0, 1.11, 0.95],
        [10188, 2, 0, 0, 0, 0, 0, 1.04594, -9.12003, 400, 0, 1.05, 0.95],
        [10189, 2, 10.2, 0, 0, 0, 0, 1.04556, -10.36714, 400, 0, 1.05, 0.95],
        [10190, 2, 0, 0, 0, 0, 0, 1.04288, -9.96023, 400, 0, 1.05, 0.95],
        [10191, 2, 0, 0, 0, 0, 0, 1.04288, -9.95495, 400, 0, 1.05, 0.95],
        [10192, 2, 0, 0, 0, 0, 0, 1.04073, -11.04322, 220, 0, 1.11, 0.95],
        [10193, 1, 0, 0, 0, 0, 0, 1.04073, -11.04554, 220, 0, 1.11, 0.95],
        [10194, 2, 0, 0, 0, 0, 0, 1.03584, -9.39911, 400, 0, 1.05, 0.95],
        [10195, 1, 0, 0, 0, 0, 0, 1.03662, -9.43812, 400, 0, 1.05, 0.95],
        [10196, 2, 0, 0, 0, 0, 0, 1.04091, -12.69816, 400, 0, 1.05, 0.95],
        [10197, 1, 295, 51.9, 0, 0, 0, 1.04399, -12.22816, 400, 0, 1.05, 0.95],
        [10198, 1, 0, 0, 0, 0, 0, 1.04664, -10.86919, 400, 0, 1.05, 0.95],
        [10199, 1, 308, 40, 0, 0, 0, 1.08152, -10.10172, 220, 0, 1.11, 0.95],
        [10200, 1, 0, 0, 0, 0, 0, 1.08153, -10.08501, 220, 0, 1.11, 0.95],
...
    ])

    ## generator data
    # bus Pg Qg Qmax Qmin Vg mBase status Pmax Pmin Pc1 Pc2 Qc1min Qc1max Qc2min Qc2max ramp_agc ramp_10 ramp_30 ramp_q apf
    ppc['gen'] = array([
        [10071, 133.9, 0.7, 99999, -99999, 1.07617, 285, 1, 204.6, 133.9, 0, 0, 0, 0, 0, 0, 0, 0, 0, 0, 0],
        [10079, 359.9, 4404.9, 99999, -99999, 1.01319, 2031, 1, 549.9, 359.9, 0, 0, 0, 0, 0, 0, 0, 0, 0, 0, 0],
        [10080, 7.6, -358.3, 99999, -99999, 1.02855, 119, 1, 11.6, 7.6, 0, 0, 0, 0, 0, 0, 0, 0, 0, 0, 0],
        [10090, 410.4, 188.1, 99999, -99999, 1.04139, 806, 1, 627, 410.4, 0, 0, 0, 0, 0, 0, 0, 0, 0, 0, 0],
        [10094, 554.4, 10091.5, 99999, -99999, 1.03526, 970, 1, 847, 554.4, 0, 0, 0, 0, 0, 0, 0, 0, 0, 0, 0],
        [10095, 121.8, -2580.1, 99999, -99999, 1.02969, 1439, 1, 1241.5, 121.8, 0, 0, 0, 0, 0, 0, 0, 0, 0, 0, 0],
        [10100, 1267.2, -118.4, 99999, -99999, 1.04073, 2202, 1, 1936, 1267.2, 0, 0, 0, 0, 0, 0, 0, 0, 0, 0, 0],
        [10104, 540, 56.7, 99999, -99999, 1.04409, 939, 1, 825, 540, 0, 0, 0, 0, 0, 0, 0, 0, 0, 0, 0],
        [10115, 280.8, -228.6, 99999, -99999, 1.00234, 492, 1, 429, 280.8, 0, 0, 0, 0, 0, 0, 0, 0, 0, 0, 0],
        [10116, 280.8, -228.6, 99999, -99999, 1.00234, 492, 1, 429, 280.8, 0, 0, 0, 0, 0, 0, 0, 0, 0, 0, 0],
        [10118, 1080, 63.4, 99999, -99999, 1.04097, 1876, 1, 1650, 1080, 0, 0, 0, 0, 0, 0, 0, 0, 0, 0, 0],
        [10126, 424.8, -432.6, 99999, -99999, 1.00802, 786, 1, 649, 424.8, 0, 0, 0, 0, 0, 0, 0, 0, 0, 0, 0],
        [10129, 1656, -432.6, 99999, -99999, 1.04538, 2974, 1, 2530, 1656, 0, 0, 0, 0, 0, 0, 0, 0, 0, 0, 0],
        [10132, 583.2, -91, 99999, -99999, 1.02908, 1014, 1, 891, 583.2, 0, 0, 0, 0, 0, 0, 0, 0, 0, 0, 0],
        [10139, 648, -206.7, 99999, -99999, 1.03742, 1143, 1, 990, 648, 0, 0, 0, 0, 0, 0, 0, 0, 0, 0, 0],
        [10140, 972, -194.4, 99999, -99999, 1.03856, 1705, 1, 1485, 972, 0, 0, 0, 0, 0, 0, 0, 0, 0, 0, 0],
        [10141, 1224, -437.3, 99999, -99999, 1.01264, 2125, 1, 1870, 1224, 0, 0, 0, 0, 0, 0, 0, 0, 0, 0, 0],
        [10146, 115.2, -176.7, 99999, -99999, 1.04296, 224, 1, 176, 115.2, 0, 0, 0, 0, 0, 0, 0, 0, 0, 0, 0],
        [10150, 201.6, 10.8, 99999, -99999, 1.04015, 427, 1, 308, 201.6, 0, 0, 0, 0, 0, 0, 0, 0, 0, 0, 0],
        [10171, 84.6, -9949, 99999, -99999, 1.02955, 715, 1, 129.3, 84.6, 0, 0, 0, 0, 0, 0, 0, 0, 0, 0, 0],
        [10176, 191, 283.3, 99999, -99999, 1.02979, 346, 1, 291.8, 191, 0, 0, 0, 0, 0, 0, 0, 0, 0, 0, 0],
        [10177, 191, 283.3, 99999, -99999, 1.02979, 346, 1, 291.8, 191, 0, 0, 0, 0, 0, 0, 0, 0, 0, 0, 0],
        [10186, 342.7, 27.1, 99999, -99999, 1.08932, 618, 1, 534.6, 342.7, 0, 0, 0, 0, 0, 0, 0, 0, 0, 0, 0],
        [10187, 342.7, 27.2, 99999, -99999, 1.0894, 618, 1, 534.6, 342.7, 0, 0, 0, 0, 0, 0, 0, 0, 0, 0, 0],
        [10188, 347.8, -76.3, 99999, -99999, 1.04594, 618, 1, 531.3, 347.8, 0, 0, 0, 0, 0, 0, 0, 0, 0, 0, 0],
        [10189, 283, -60.7, 99999, -99999, 1.04556, 620, 1, 542.3, 283, 0, 0, 0, 0, 0, 0, 0, 0, 0, 0, 0],
        [10190, 371.5, -14.2, 99999, -99999, 1.04288, 683, 1, 600.6, 371.5, 0, 0, 0, 0, 0, 0, 0, 0, 0, 0, 0],
        [10191, 370.8, -13.7, 99999, -99999, 1.04288, 682, 1, 599.5, 370.8, 0, 0, 0, 0, 0, 0, 0, 0, 0, 0, 0],
        [10192, 111.6, 19.1, 99999, -99999, 1.04073, 281, 1, 247.5, 111.6, 0, 0, 0, 0, 0, 0, 0, 0, 0, 0, 0],
        [10194, 64.8, -85.2, 99999, -99999, 1.03584, 184, 1, 143, 64.8, 0, 0, 0, 0, 0, 0, 0, 0, 0, 0, 0],
        [10196, 108, -46.1, 99999, -99999, 1.04091, 215, 1, 165, 108, 0, 0, 0, 0, 0, 0, 0, 0, 0, 0, 0],
        [10223, 125.5, 190.8, 99999, -99999, 1.04073, 189, 1, 125.5, 0, 0, 0, 0, 0, 0, 0, 0, 0, 0, 0, 0],
        [10225, 77.8, 131.8, 99999, -99999, 1.06248, 333, 1, 272.8, 77.8, 0, 0, 0, 0, 0, 0, 0, 0, 0, 0, 0],
        [10226, 34.6, 97.3, 99999, -99999, 1.06441, 198, 1, 140.8, 34.6, 0, 0, 0, 0, 0, 0, 0, 0, 0, 0, 0],
        [10227, 11.5, 71.5, 99999, -99999, 1.10423, 191, 1, 17.6, 11.5, 0, 0, 0, 0, 0, 0, 0, 0, 0, 0, 0],
        [10228, 18.7, 146.1, 99999, -99999, 1.06247, 135, 1, 28.6, 18.7, 0, 0, 0, 0, 0, 0, 0, 0, 0, 0, 0],
        [10229, 39.6, 24.8, 99999, -99999, 1.06902, 85, 1, 60.5, 39.6, 0, 0, 0, 0, 0, 0, 0, 0, 0, 0, 0],
        [10230, 0, 18.2, 99999, -99999, 1.07323, 132, 1, 0.1, 0, 0, 0, 0, 0, 0, 0, 0, 0, 0, 0, 0],
        [10232, 11.2, 36.3, 99999, -99999, 1.01987, 64, 1, 17.2, 11.2, 0, 0, 0, 0, 0, 0, 0, 0, 0, 0, 0],
        [10233, 45.4, 68.4, 99999, -99999, 1.04665, 79, 1, 69.3, 45.4, 0, 0, 0, 0, 0, 0, 0, 0, 0, 0, 0],
        [10234, 3.6, 205.6, 99999, -99999, 1.09129, 115, 1, 5.5, 3.6, 0, 0, 0, 0, 0, 0, 0, 0, 0, 0, 0],
        [10235, 28.8, 18.1, 99999, -99999, 1.08091, 83, 1, 44, 28.8, 0, 0, 0, 0, 0, 0, 0, 0, 0, 0, 0],
        [10236, 119.5, 37.8, 99999, -99999, 1.07896, 219, 1, 182.6, 119.5, 0, 0, 0, 0, 0, 0, 0, 0, 0, 0, 0],
        [10237, 50.4, 132, 99999, -99999, 1.08023, 121, 1, 77, 50.4, 0, 0, 0, 0, 0, 0, 0, 0, 0, 0, 0],
        [10238, 61.9, 122.2, 99999, -99999, 1.00809, 179, 1, 94.6, 61.9, 0, 0, 0, 0, 0, 0, 0, 0, 0, 0, 0],
        [10239, 62.6, 39.5, 99999, -99999, 1.06246, 109, 1, 95.7, 62.6, 0, 0, 0, 0, 0, 0, 0, 0, 0, 0, 0],
        [10240, 0, 11.5, 99999, -99999, 1.0666, 128, 1, 0.1, 0, 0, 0, 0, 0, 0, 0, 0, 0, 0, 0, 0],
        [10246, 146.2, -49.3, 99999, -99999, 1.03917, 262, 1, 223.3, 146.2, 0, 0, 0, 0, 0, 0, 0, 0, 0, 0, 0],
        [10247, 102.2, -1.7, 99999, -99999, 1.12, 215, 1, 156.2, 102.2, 0, 0, 0, 0, 0, 0, 0, 0, 0, 0, 0],
        [10248, 122.4, 6.2, 99999, -99999, 1.12, 241, 1, 187, 122.4, 0, 0, 0, 0, 0, 0, 0, 0, 0, 0, 0],
        [10249, 128, -23.9, 99999, -99999, 1.00179, 225, 1, 195.6, 128, 0, 0, 0, 0, 0, 0, 0, 0, 0, 0, 0],
        [10250, 374.4, -1.1, 99999, -99999, 1.0404, 650, 1, 572, 374.4, 0, 0, 0, 0, 0, 0, 0, 0, 0, 0, 0],
        [10251, 374.4, -2.6, 99999, -99999, 1.03995, 650, 1, 572, 374.4, 0, 0, 0, 0, 0, 0, 0, 0, 0, 0, 0],
        [10252, 374.4, -2.5, 99999, -99999, 1.03994, 650, 1, 572, 374.4, 0, 0, 0, 0, 0, 0, 0, 0, 0, 0, 0],
        [10253, 187.9, 33.5, 99999, -99999, 1.01534, 341, 1, 287.1, 187.9, 0, 0, 0, 0, 0, 0, 0, 0, 0, 0, 0],
        [10254, 342.7, 30.5, 99999, -99999, 1.04999, 598, 1, 523.6, 342.7, 0, 0, 0, 0, 0, 0, 0, 0, 0, 0, 0],
        [10255, 121, 5.4, 99999, -99999, 1.03994, 210, 1, 184.8, 121, 0, 0, 0, 0, 0, 0, 0, 0, 0, 0, 0],
        [10256, 280.8, 31.7, 99999, -99999, 1.11998, 489, 1, 429, 280.8, 0, 0, 0, 0, 0, 0, 0, 0, 0, 0, 0],
        [10257, 140.4, 16.3, 99999, -99999, 1.11817, 250, 1, 214.5, 140.4, 0, 0, 0, 0, 0, 0, 0, 0, 0, 0, 0],
        [10258, 129.6, -3, 99999, -99999, 1.10518, 230, 1, 198, 129.6, 0, 0, 0, 0, 0, 0, 0, 0, 0, 0, 0],
        [10259, 283.7, 8, 99999, -99999, 0.98182, 519, 1, 433.4, 283.7, 0, 0, 0, 0, 0, 0, 0, 0, 0, 0, 0],
        [10260, 425.5, 9.2, 99999, -99999, 1.10941, 741, 1, 650.1, 425.5, 0, 0, 0, 0, 0, 0, 0, 0, 0, 0, 0],
        [10261, 579.6, 15.8, 99999, -99999, 0.99592, 1100, 1, 951.5, 579.6, 0, 0, 0, 0, 0, 0, 0, 0, 0, 0, 0],
        [10262, 579.6, 15.9, 99999, -99999, 0.99592, 1100, 1, 951.5, 579.6, 0, 0, 0, 0, 0, 0, 0, 0, 0, 0, 0],
        [10263, 67.7, 7.8, 99999, -99999, 1.09219, 121, 1, 103.4, 67.7, 0, 0, 0, 0, 0, 0, 0, 0, 0, 0, 0],
        [10264, 280.8, -4.2, 99999, -99999, 1.00552, 489, 1, 429, 280.8, 0, 0, 0, 0, 0, 0, 0, 0, 0, 0, 0],
        [10265, 280.8, -7.2, 99999, -99999, 1.10573, 496, 1, 429, 280.8, 0, 0, 0, 0, 0, 0, 0, 0, 0, 0, 0],
        [10266, 3.6, -8.1, 99999, -99999, 1.04403, 72, 1, 5.5, 3.6, 0, 0, 0, 0, 0, 0, 0, 0, 0, 0, 0],
        [10267, 4.3, 43.3, 99999, -99999, 1.08131, 120, 1, 6.6, 4.3, 0, 0, 0, 0, 0, 0, 0, 0, 0, 0, 0],
        [10268, 20.9, 15.8, 99999, -99999, 1.06395, 37, 1, 31.9, 20.9, 0, 0, 0, 0, 0, 0, 0, 0, 0, 0, 0],
        [10269, 68.4, 127.9, 99999, -99999, 1.07428, 338, 1, 291.5, 68.4, 0, 0, 0, 0, 0, 0, 0, 0, 0, 0, 0],
        [10270, 0, 24.4, 99999, -99999, 1.05973, 40, 1, 0.1, 0, 0, 0, 0, 0, 0, 0, 0, 0, 0, 0, 0],
        [10271, 156.2, 71.4, 99999, -99999, 1.06494, 286, 1, 238.7, 156.2, 0, 0, 0, 0, 0, 0, 0, 0, 0, 0, 0],
        [10272, 24.5, 16.2, 99999, -99999, 1.072, 116, 1, 37.4, 24.5, 0, 0, 0, 0, 0, 0, 0, 0, 0, 0, 0],
        [10273, 165.6, 83.2, 99999, -99999, 1.02431, 321, 1, 253, 165.6, 0, 0, 0, 0, 0, 0, 0, 0, 0, 0, 0],
        [10274, 61.2, 118.3, 99999, -99999, 1.06504, 317, 1, 225.5, 61.2, 0, 0, 0, 0, 0, 0, 0, 0, 0, 0, 0],
        [10275, 21.6, 5.4, 99999, -99999, 1.06182, 125, 1, 110, 21.6, 0, 0, 0, 0, 0, 0, 0, 0, 0, 0, 0],
        [10276, 107.3, 19.9, 99999, -99999, 1.06034, 189, 1, 163.9, 107.3, 0, 0, 0, 0, 0, 0, 0, 0, 0, 0, 0],
        [10277, 80.6, 60, 99999, -99999, 1.06264, 225, 1, 123.2, 80.6, 0, 0, 0, 0, 0, 0, 0, 0, 0, 0, 0],
        [10278, 129.6, 18.8, 99999, -99999, 1.11356, 233, 1, 198, 129.6, 0, 0, 0, 0, 0, 0, 0, 0, 0, 0, 0],
        [10279, 129.6, 18.8, 99999, -99999, 1.11356, 233, 1, 198, 129.6, 0, 0, 0, 0, 0, 0, 0, 0, 0, 0, 0],
        [10281, 2.9, 25.3, 99999, -99999, 1.07868, 20, 1, 4.4, 2.9, 0, 0, 0, 0, 0, 0, 0, 0, 0, 0, 0],
        [10282, 58.3, 143.8, 99999, -99999, 1.06767, 357, 1, 287.1, 58.3, 0, 0, 0, 0, 0, 0, 0, 0, 0, 0, 0],
        [10284, 418.3, 179, 99999, -99999, 1.12, 919, 1, 771.1, 418.3, 0, 0, 0, 0, 0, 0, 0, 0, 0, 0, 0],
        [10285, 0, -21.9, 99999, -99999, 1.0574, 132, 1, 0.1, 0, 0, 0, 0, 0, 0, 0, 0, 0, 0, 0, 0],
        [10288, 20.9, -26.5, 99999, -99999, 1.03369, 63, 1, 31.9, 20.9, 0, 0, 0, 0, 0, 0, 0, 0, 0, 0, 0],
        [10289, 0.7, -25, 99999, -99999, 1.05256, 41, 1, 34.1, 0.7, 0, 0, 0, 0, 0, 0, 0, 0, 0, 0, 0],
        [10290, 28.1, 27.1, 99999, -99999, 1.06119, 49, 1, 42.9, 28.1, 0, 0, 0, 0, 0, 0, 0, 0, 0, 0, 0],
        [10291, 5.8, 48.9, 99999, -99999, 1.08362, 71, 1, 8.8, 5.8, 0, 0, 0, 0, 0, 0, 0, 0, 0, 0, 0],
        [10292, 312.5, 164.1, 99999, -99999, 1.08678, 638, 1, 477.4, 312.5, 0, 0, 0, 0, 0, 0, 0, 0, 0, 0, 0],
        [10293, 19.4, 20.3, 99999, -99999, 1.07356, 46, 1, 29.7, 19.4, 0, 0, 0, 0, 0, 0, 0, 0, 0, 0, 0],
        [10294, 7.9, 33.2, 99999, -99999, 1.08819, 74, 1, 12.1, 7.9, 0, 0, 0, 0, 0, 0, 0, 0, 0, 0, 0],
        [10295, 151.9, 124.2, 99999, -99999, 0.99474, 299, 1, 232.1, 151.9, 0, 0, 0, 0, 0, 0, 0, 0, 0, 0, 0],
        [10296, 197.3, 132.4, 99999, -99999, 1.08634, 461, 1, 301.4, 197.3, 0, 0, 0, 0, 0, 0, 0, 0, 0, 0, 0],
        [24, 110, 89.2, 140, -49, 1.07767, 235.3, 1, 221, 110, 0, 0, 0, 0, 0, 0, 0, 0, 0, 0, 0],
        [25, 135, -22, 124, -22, 1.0776, 235.3, 1, 200, 135, 0, 0, 0, 0, 0, 0, 0, 0, 0, 0, 0],
        [37, 370, 169.3, 190, -19, 1.11, 426, 1, 370, 240, 0, 0, 0, 0, 0, 0, 0, 0, 0, 0, 0],
        [37, 370, -19, 190, -19, 1.11, 426, 1, 370, 240, 0, 0, 0, 0, 0, 0, 0, 0, 0, 0, 0],
        [38, 370, 34.1, 190, -19, 1.11, 426, 1, 370, 240, 0, 0, 0, 0, 0, 0, 0, 0, 0, 0, 0],
        [38, 370, 2.3, 190, -19, 1.11, 426, 1, 370, 240, 0, 0, 0, 0, 0, 0, 0, 0, 0, 0, 0],
        [39, 370, 94.4, 190, -19, 1.11, 426, 1, 370, 240, 0, 0, 0, 0, 0, 0, 0, 0, 0, 0, 0],
        [40, 370, 190, 190, -19, 1.04756, 426, 1, 370, 240, 0, 0, 0, 0, 0, 0, 0, 0, 0, 0, 0],
        [40, 370, -19, 190, -19, 1.04756, 426, 1, 370, 240, 0, 0, 0, 0, 0, 0, 0, 0, 0, 0, 0],
        [40, 370, -19, 190, -19, 1.04756, 426, 1, 370, 240, 0, 0, 0, 0, 0, 0, 0, 0, 0, 0, 0],
        [41, 370, -0.1, 190, -19, 1.04755, 426, 1, 370, 240, 0, 0, 0, 0, 0, 0, 0, 0, 0, 0, 0],
        [41, 370, -0.6, 190, -19, 1.04755, 426, 1, 370, 240, 0, 0, 0, 0, 0, 0, 0, 0, 0, 0, 0],
        [41, 370, -0.6, 190, -19, 1.04755, 426, 1, 370, 240, 0, 0, 0, 0, 0, 0, 0, 0, 0, 0, 0],
        [57, 110, 37.2, 152, -33, 1.10991, 235, 1, 215, 110, 0, 0, 0, 0, 0, 0, 0, 0, 0, 0, 0],
        [57, 171.6, 152, 152, -33, 1.10991, 235, 1, 220, 125, 0, 0, 0, 0, 0, 0, 0, 0, 0, 0, 0],
        [58, 125, 149, 149, -33, 1.1097, 235, 1, 225, 125, 0, 0, 0, 0, 0, 0, 0, 0, 0, 0, 0],
        [58, 0, 0, 149, -33, 1, 235, 0, 225, 120, 0, 0, 0, 0, 0, 0, 0, 0, 0, 0, 0],
        [58, 110, -33, 149, -33, 1.1097, 235, 1, 225, 110, 0, 0, 0, 0, 0, 0, 0, 0, 0, 0, 0],
        [59, 225, 149, 149, -33, 1.11, 235, 1, 225, 110, 0, 0, 0, 0, 0, 0, 0, 0, 0, 0, 0],
        [60, 535, 305.9, 363, -47, 1.05, 588, 1, 535, 255, 0, 0, 0, 0, 0, 0, 0, 0, 0, 0, 0],
        [61, 278.8, -100, 348, -100, 1.04992, 588, 1, 560, 250, 0, 0, 0, 0, 0, 0, 0, 0, 0, 0, 0],
        [70, 129, -11, 105, -11, 1.10739, 235, 1, 225, 129, 0, 0, 0, 0, 0, 0, 0, 0, 0, 0, 0],
        [71, 129, 59, 105, -11, 1.10739, 235, 1, 225, 129, 0, 0, 0, 0, 0, 0, 0, 0, 0, 0, 0],
        [71, 0, 0, 99, -10, 1, 235, 0, 225, 129, 0, 0, 0, 0, 0, 0, 0, 0, 0, 0, 0],
        [72, 0, 0, 105, -11, 1, 235, 0, 225, 129, 0, 0, 0, 0, 0, 0, 0, 0, 0, 0, 0],
        [72, 129, -11, 105, -11, 1.04287, 235, 1, 225, 129, 0, 0, 0, 0, 0, 0, 0, 0, 0, 0, 0],
        [73, 129, -10, 99, -10, 1.0429, 235, 1, 225, 129, 0, 0, 0, 0, 0, 0, 0, 0, 0, 0, 0],
        [73, 129, -11, 105, -11, 1.0429, 235, 1, 225, 129, 0, 0, 0, 0, 0, 0, 0, 0, 0, 0, 0],
        [74, 112, 60, 60, 0, 1.1043, 120, 1, 112, 0, 0, 0, 0, 0, 0, 0, 0, 0, 0, 0, 0],
        [94, 220, 131, 131, -6, 1.10247, 270.6, 1, 220, 125, 0, 0, 0, 0, 0, 0, 0, 0, 0, 0, 0],
        [94, 225, 97.3, 131, -6, 1.10247, 270.6, 1, 225, 140, 0, 0, 0, 0, 0, 0, 0, 0, 0, 0, 0],
        [95, 225, 131, 131, -6, 1.10442, 270.6, 1, 225, 130, 0, 0, 0, 0, 0, 0, 0, 0, 0, 0, 0],
        [95, 225, 131, 131, -6, 1.10442, 270.6, 1, 225, 125, 0, 0, 0, 0, 0, 0, 0, 0, 0, 0, 0],
        [95, 225, -4.4, 131, -6, 1.10442, 270.6, 1, 225, 130, 0, 0, 0, 0, 0, 0, 0, 0, 0, 0, 0],
        [98, 383, 35.2, 213, -31, 1.05, 426, 1, 383, 220, 0, 0, 0, 0, 0, 0, 0, 0, 0, 0, 0],
        [98, 380, -14.8, 119, -31, 1.05, 435.3, 1, 380, 220, 0, 0, 0, 0, 0, 0, 0, 0, 0, 0, 0],
        [115, 12, 0, 0, 0, 1.09646, 12, 1, 12, 0, 0, 0, 0, 0, 0, 0, 0, 0, 0, 0, 0],
        [115, 6, 0, 0, 0, 1.09646, 6, 1, 6, 0, 0, 0, 0, 0, 0, 0, 0, 0, 0, 0, 0],
        [121, 0, 0, 120, -10, 1, 270.6, 0, 225, 120, 0, 0, 0, 0, 0, 0, 0, 0, 0, 0, 0],
        [122, 225, 120, 120, -10, 1.10922, 270.6, 1, 225, 120, 0, 0, 0, 0, 0, 0, 0, 0, 0, 0, 0],
        [123, 120, 5.3, 73, -1, 1.10624, 150, 1, 120, 70, 0, 0, 0, 0, 0, 0, 0, 0, 0, 0, 0],
        [124, 120, 73, 73, -1, 1.10639, 150, 1, 120, 70, 0, 0, 0, 0, 0, 0, 0, 0, 0, 0, 0],
        [134, 0, 0, 80, 0, 1, 150, 0, 120, 70, 0, 0, 0, 0, 0, 0, 0, 0, 0, 0, 0],
        [135, 120, 80, 80, 0, 1.09923, 150, 1, 120, 70, 0, 0, 0, 0, 0, 0, 0, 0, 0, 0, 0],
        [136, 80, 31, 31, 0, 1.07793, 117.5, 1, 110, 80, 0, 0, 0, 0, 0, 0, 0, 0, 0, 0, 0],
        [144, 215, 64.7, 135, -35, 1.10999, 270.6, 1, 215, 135, 0, 0, 0, 0, 0, 0, 0, 0, 0, 0, 0],
        [145, 215, -35, 135, -35, 1.11, 270.6, 1, 215, 135, 0, 0, 0, 0, 0, 0, 0, 0, 0, 0, 0],
        [145, 225, 140, 140, -35, 1.11, 270.6, 1, 225, 135, 0, 0, 0, 0, 0, 0, 0, 0, 0, 0, 0],
        [146, 225, -34.1, 140, -36, 1.04293, 270.6, 1, 225, 135, 0, 0, 0, 0, 0, 0, 0, 0, 0, 0, 0],
        [146, 220, -34.1, 137, -36, 1.04293, 270.6, 1, 220, 135, 0, 0, 0, 0, 0, 0, 0, 0, 0, 0, 0],
        [152, 0, 0, 72, -29, 1, 150, 0, 135, -135, 0, 0, 0, 0, 0, 0, 0, 0, 0, 0, 0],
        [152, 0, 0, 72, -29, 1, 150, 0, 135, -135, 0, 0, 0, 0, 0, 0, 0, 0, 0, 0, 0],
        [153, 0, 0, 72, -29, 1, 150, 0, 135, -135, 0, 0, 0, 0, 0, 0, 0, 0, 0, 0, 0],
        [153, 0, 0, 72, -29, 1, 150, 0, 135, -135, 0, 0, 0, 0, 0, 0, 0, 0, 0, 0, 0],
        [154, 120, 85, 85, -15, 1.0916, 150, 1, 120, 94, 0, 0, 0, 0, 0, 0, 0, 0, 0, 0, 0],
        [155, 120, 85, 85, -15, 1.0916, 150, 1, 120, 94, 0, 0, 0, 0, 0, 0, 0, 0, 0, 0, 0],
        [155, 0, 0, 85, -15, 1, 150, 0, 120, 94, 0, 0, 0, 0, 0, 0, 0, 0, 0, 0, 0],
        [169, 0, 0, 25, 0, 1, 51.4, 0, 50, 40, 0, 0, 0, 0, 0, 0, 0, 0, 0, 0, 0],
        [170, 0, 0, 90, -15, 1, 150, 0, 120, 80, 0, 0, 0, 0, 0, 0, 0, 0, 0, 0, 0],
        [170, 0, 0, 25, 0, 1, 51.4, 0, 50, 45, 0, 0, 0, 0, 0, 0, 0, 0, 0, 0, 0],
        [172, 100, 119, 119, -31, 1.06808, 252.4, 1, 232, 100, 0, 0, 0, 0, 0, 0, 0, 0, 0, 0, 0],
        [172, 0, 0, 111, -21, 1, 237.5, 0, 205, 135, 0, 0, 0, 0, 0, 0, 0, 0, 0, 0, 0],
        [173, 0, 0, 111, -21, 1, 237.5, 0, 205, 135, 0, 0, 0, 0, 0, 0, 0, 0, 0, 0, 0],
        [173, 0, 0, 102, -15, 1, 252.4, 0, 222, 90, 0, 0, 0, 0, 0, 0, 0, 0, 0, 0, 0],
        [174, 90, 102, 102, -15, 1.03111, 252.4, 1, 222, 90, 0, 0, 0, 0, 0, 0, 0, 0, 0, 0, 0],
        [175, 90, 46.7, 102, -15, 1.03109, 252.4, 1, 222, 90, 0, 0, 0, 0, 0, 0, 0, 0, 0, 0, 0],
        [175, 100, 20.7, 93, -10, 1.03109, 252.4, 1, 232, 100, 0, 0, 0, 0, 0, 0, 0, 0, 0, 0, 0],
        [180, 261, 66.1, 127, -35, 1.11, 287.3, 1, 261, 104, 0, 0, 0, 0, 0, 0, 0, 0, 0, 0, 0],
        [180, 261, 127, 127, -35, 1.11, 287.3, 1, 261, 104, 0, 0, 0, 0, 0, 0, 0, 0, 0, 0, 0],
        [181, 206, 99, 103, -17, 1.11, 238.4, 1, 206, 120, 0, 0, 0, 0, 0, 0, 0, 0, 0, 0, 0],
        [181, 261, 123, 127, -35, 1.11, 287.3, 1, 261, 104, 0, 0, 0, 0, 0, 0, 0, 0, 0, 0, 0],
        [182, 235, -38, 145, -38, 1.11, 263.9, 1, 235, 94, 0, 0, 0, 0, 0, 0, 0, 0, 0, 0, 0],
        [182, 235, 65.3, 145, -38, 1.11, 263.9, 1, 235, 94, 0, 0, 0, 0, 0, 0, 0, 0, 0, 0, 0],
        [183, 206, 103, 103, -17, 1.04854, 238.4, 1, 206, 120, 0, 0, 0, 0, 0, 0, 0, 0, 0, 0, 0],
        [183, 206, 103, 103, -17, 1.04854, 238.4, 1, 206, 120, 0, 0, 0, 0, 0, 0, 0, 0, 0, 0, 0],
        [191, 200, 104, 104, -23, 1.08579, 233.2, 1, 200, 150, 0, 0, 0, 0, 0, 0, 0, 0, 0, 0, 0],
        [192, 200, 104, 104, -23, 1.08551, 233.2, 1, 200, 150, 0, 0, 0, 0, 0, 0, 0, 0, 0, 0, 0],
        [192, 0, 0, 104, -23, 1, 233.2, 0, 200, 145, 0, 0, 0, 0, 0, 0, 0, 0, 0, 0, 0],
        [192, 0, 0, 104, -23, 1, 233.2, 0, 200, 145, 0, 0, 0, 0, 0, 0, 0, 0, 0, 0, 0],
        [193, 464, 294, 294, -259, 1.03481, 464, 1, 464, 208, 0, 0, 0, 0, 0, 0, 0, 0, 0, 0, 0],
        [208, 188, 100, 100, 0, 1.06766, 218.3, 1, 188, 76, 0, 0, 0, 0, 0, 0, 0, 0, 0, 0, 0],
        [240, 179, -62, 105, -62, 1.02448, 209, 1, 179, -200, 0, 0, 0, 0, 0, 0, 0, 0, 0, 0, 0],
        [240, 179, -62, 105, -62, 1.02448, 209, 1, 179, -200, 0, 0, 0, 0, 0, 0, 0, 0, 0, 0, 0],
        [240, 0, 0, 160, -100, 1, 209, 0, 179, -200, 0, 0, 0, 0, 0, 0, 0, 0, 0, 0, 0],
        [241, 179, -12.1, 160, -100, 1.02448, 209, 1, 179, -200, 0, 0, 0, 0, 0, 0, 0, 0, 0, 0, 0],
        [244, 220, 11.6, 100, 0, 1.11, 177.1, 1, 220, 112.5, 0, 0, 0, 0, 0, 0, 0, 0, 0, 0, 0],
        [254, 55, 20, 20, 0, 1.09551, 78.8, 1, 55, 23, 0, 0, 0, 0, 0, 0, 0, 0, 0, 0, 0],
        [254, 43.5, 20, 20, 0, 1.09551, 68.8, 1, 50, 25, 0, 0, 0, 0, 0, 0, 0, 0, 0, 0, 0],
        [254, 50, 20, 20, 0, 1.09551, 68.8, 1, 50, 25, 0, 0, 0, 0, 0, 0, 0, 0, 0, 0, 0],
        [254, 23, 20, 20, 0, 1.09551, 27.6, 1, 23, 7, 0, 0, 0, 0, 0, 0, 0, 0, 0, 0, 0],
        [267, 2.1, 1, 1, 0, 1.05867, 0.7, 1, 2.1, 0.5, 0, 0, 0, 0, 0, 0, 0, 0, 0, 0, 0],
        [268, 2.1, 1, 1, 0, 1.07476, 0.7, 1, 2.1, 0.5, 0, 0, 0, 0, 0, 0, 0, 0, 0, 0, 0],
        [278, 0, 0, 5, 0, 1, 10.3, 0, 7.2, 5.9, 0, 0, 0, 0, 0, 0, 0, 0, 0, 0, 0],
        [279, 0, 0, 5, 0, 1, 10.3, 0, 7.2, 5.9, 0, 0, 0, 0, 0, 0, 0, 0, 0, 0, 0],
        [295, 5, 3.8, 3.75, 0, 1.08251, 5, 1, 5, 1, 0, 0, 0, 0, 0, 0, 0, 0, 0, 0, 0],
        [295, 5, 3.8, 3.75, 0, 1.08251, 5, 1, 5, 1, 0, 0, 0, 0, 0, 0, 0, 0, 0, 0, 0],
        [295, 5, 3.8, 3.75, 0, 1.08251, 5, 1, 5, 1, 0, 0, 0, 0, 0, 0, 0, 0, 0, 0, 0],
        [295, 5, 3.8, 3.75, 0, 1.08251, 5, 1, 5, 1, 0, 0, 0, 0, 0, 0, 0, 0, 0, 0, 0],
        [310, 370, 190, 190, -19, 0.99995, 426, 1, 370, 240, 0, 0, 0, 0, 0, 0, 0, 0, 0, 0, 0],
        [316, 0, 0, 2, 0, 1, 4, 0, 5.7, 1, 0, 0, 0, 0, 0, 0, 0, 0, 0, 0, 0],
        [316, 0, 0, 2, 0, 1, 4, 0, 5.7, 1, 0, 0, 0, 0, 0, 0, 0, 0, 0, 0, 0],
        [376, 6.6, 5, 5, 0, 1.09167, 8.4, 1, 6.6, 5.4, 0, 0, 0, 0, 0, 0, 0, 0, 0, 0, 0],
        [379, 0.9, 1, 1, 0, 1.11164, 0.9, 1, 0.9, 0.3, 0, 0, 0, 0, 0, 0, 0, 0, 0, 0, 0],
        [379, 0.9, 1, 1, 0, 1.11164, 0.9, 1, 0.9, 0.3, 0, 0, 0, 0, 0, 0, 0, 0, 0, 0, 0],
        [379, 0.9, 1, 1, 0, 1.11164, 0.9, 1, 0.9, 0.3, 0, 0, 0, 0, 0, 0, 0, 0, 0, 0, 0],
        [383, 27, 7, 7, 0, 1.11072, 31.3, 1, 27, 11, 0, 0, 0, 0, 0, 0, 0, 0, 0, 0, 0],
...
    ])

    ## branch data
    # fbus tbus r x b rateA rateB rateC ratio angle status angmin angmax
    ppc['branch'] = array([
        [10330, 10331, 1e-05, 8e-05, 0, 99999, 19052, 19052, 0, 0, 1, -360, 360],
        [10300, 10355, 0.05932, 0.20245, 0, 99999, 19052, 19052, 0, 0, 1, -360, 360],
        [10300, 10360, 0.02058, 0.05185, 0, 99999, 19052, 19052, 0, 0, 1, -360, 360],
        [10367, 10201, 2e-05, -0.04958, 0, 99999, 200, 200, 0.999, 0, 1, -360, 360],
        [10367, 10202, 6e-05, 0.08346, 0, 99999, 200, 200, 0.99999, 0, 1, -360, 360],
        [10366, 10367, 0.0026, 0.25917, 0, 99999, 200, 200, 0.99999, 0, 1, -360, 360],
        [10368, 10215, 2e-05, -0.04961, 0, 99999, 200, 200, 0.999, 0, 1, -360, 360],
        [10368, 10216, 6e-05, 0.08373, 0, 99999, 200, 200, 0.99999, 0, 1, -360, 360],
        [10369, 10368, 0.0026, 0.26125, 0, 99999, 200, 200, 0.99999, 0, 1, -360, 360],
        [10090, 10083, 8e-05, 0.00079, 0.41456, 99999, 1247, 1247, 0, 0, 1, -360, 360],
        [10138, 10164, 0.00168, 0.01733, 0.75504, 99999, 1746, 1746, 0, 0, 1, -360, 360],
        [10139, 10109, 0.00071, 0.00594, 0.27872, 99999, 1386, 1386, 0, 0, 1, -360, 360],
        [10139, 10144, 0.00075, 0.00681, 0.312, 99999, 1386, 1386, 0, 0, 1, -360, 360],
        [10139, 10153, 0.00194, 0.02, 0.8336, 99999, 1386, 1386, 0, 0, 1, -360, 360],
        [10140, 10110, 0.00071, 0.00594, 0.27872, 99999, 1386, 1386, 0, 0, 1, -360, 360],
        [10140, 10143, 0.00075, 0.00681, 0.312, 99999, 1386, 1386, 0, 0, 1, -360, 360],
        [10140, 10153, 0.00194, 0.02, 0.8336, 99999, 1386, 1386, 0, 0, 1, -360, 360],
        [10141, 10153, 0.00233, 0.01696, 0.70784, 99999, 1746, 1746, 0, 0, 1, -360, 360],
        [10090, 10085, 0.00017, 0.00148, 1.23008, 99999, 1247, 1247, 0, 0, 1, -360, 360],
        [10141, 10158, 0.00204, 0.01707, 0.71344, 99999, 1746, 1746, 0, 0, 1, -360, 360],
        [10141, 10158, 0.00204, 0.01707, 0.71344, 99999, 1746, 1746, 0, 0, 1, -360, 360],
        [10143, 10144, 1e-05, 6e-05, 0, 99999, 1732, 1732, 0, 0, 1, -360, 360],
        [10143, 10153, 0.00169, 0.01381, 0.6496, 99999, 1386, 1386, 0, 0, 1, -360, 360],
        [10143, 10156, 0.00119, 0.00969, 0.4544, 99999, 1386, 1386, 0, 0, 1, -360, 360],
        [10144, 10126, 0.00306, 0.02537, 1.19168, 99999, 1386, 1386, 0, 0, 1, -360, 360],
        [10144, 10153, 0.00169, 0.01381, 0.6496, 99999, 1386, 1386, 0, 0, 1, -360, 360],
        [10144, 10165, 0.00244, 0.02044, 0.9584, 99999, 831, 831, 0, 0, 1, -360, 360],
        [10091, 10090, 9e-05, 0.00106, 1.10432, 99999, 1247, 1247, 0, 0, 1, -360, 360],
        [10145, 10147, 0.00194, 0.01606, 0.75456, 99999, 1787, 1787, 0, 0, 1, -360, 360],
        [10145, 10158, 0.00189, 0.01232, 0.61088, 99999, 1746, 1746, 0, 0, 1, -360, 360],
        [10171, 10094, 0, 6e-05, 0, 99999, 1593, 1593, 0, 0, 1, -360, 360],
        [10145, 10082, 0.00091, 0.00923, 0.39197, 99999, 1642, 1642, 0, 0, 1, -360, 360],
        [10145, 10082, 0.00091, 0.00923, 0.39197, 99999, 1642, 1642, 0, 0, 1, -360, 360],
        [10146, 10154, 0.00503, 0.01845, 0.05812, 99999, 408, 408, 0, 0, 1, -360, 360],
        [10172, 10095, 0, 6e-05, 0, 99999, 1386, 1386, 0, 0, 1, -360, 360],
        [10147, 10153, 0.00156, 0.01288, 0.6032, 99999, 1386, 1386, 0, 0, 1, -360, 360],
        [10173, 10095, 0, 6e-05, 0, 99999, 1386, 1386, 0, 0, 1, -360, 360],
        [10147, 10153, 0.00156, 0.01288, 0.6032, 99999, 1386, 1386, 0, 0, 1, -360, 360],
        [10174, 10096, 2e-05, 0.00016, 0.0008, 99999, 1386, 1386, 0, 0, 1, -360, 360],
        [10147, 10161, 0.00113, 0.00962, 0.4528, 99999, 1787, 1787, 0, 0, 1, -360, 360],
        [10176, 10098, 0.00029, 0.00219, 0.11056, 99999, 1386, 1386, 0, 0, 1, -360, 360],
        [10177, 10098, 0.00029, 0.00219, 0.11056, 99999, 1386, 1386, 0, 0, 1, -360, 360],
        [10147, 10169, 0.00041, 0.00423, 0.18496, 99999, 1386, 1386, 0, 0, 1, -360, 360],
        [10147, 10170, 0.00041, 0.00423, 0.18496, 99999, 1386, 1386, 0, 0, 1, -360, 360],
        [10091, 10090, 9e-05, 0.00106, 1.10432, 99999, 1247, 1247, 0, 0, 1, -360, 360],
        [10147, 10037, 0.00105, 0.00925, 0.37437, 99999, 1386, 1386, 0, 0, 1, -360, 360],
        [10147, 10037, 0.00105, 0.00925, 0.37437, 99999, 1386, 1386, 0, 0, 1, -360, 360],
        [10148, 10136, 0.00293, 0.01074, 0.03436, 99999, 408, 408, 0, 0, 1, -360, 360],
        [10148, 10149, 2e-05, 0.0001, 0, 99999, 762, 762, 0, 0, 1, -360, 360],
        [10149, 10136, 0.00293, 0.01074, 0.03436, 99999, 408, 408, 0, 0, 1, -360, 360],
        [10149, 10162, 0.01595, 0.06457, 0.17037, 99999, 301, 301, 0, 0, 1, -360, 360],
        [10151, 10147, 0.00188, 0.01925, 0.8432, 99999, 1386, 1386, 0, 0, 1, -360, 360],
        [10152, 10164, 0.00364, 0.03742, 1.6384, 99999, 1746, 1746, 0, 0, 1, -360, 360],
        [10156, 10165, 0.00131, 0.011, 0.5168, 99999, 831, 831, 0, 0, 1, -360, 360],
        [10158, 10081, 0.00127, 0.0132, 0.5505, 99999, 1746, 1746, 0, 0, 1, -360, 360],
        [10091, 10164, 0.0023, 0.02084, 0.8752, 99999, 1746, 1746, 0, 0, 1, -360, 360],
        [10159, 10163, 0.00517, 0.03967, 0.12439, 99999, 457, 457, 0, 0, 1, -360, 360],
        [10159, 10163, 0.00517, 0.03967, 0.12439, 99999, 457, 457, 0, 0, 1, -360, 360],
        [10160, 10137, 0.0099, 0.03659, 0.11674, 99999, 343, 343, 0, 0, 1, -360, 360],
        [10161, 10145, 0.00088, 0.007, 0.3296, 99999, 1787, 1787, 0, 0, 1, -360, 360],
        [10162, 10122, 0.00527, 0.0193, 0.06156, 99999, 408, 408, 0, 0, 1, -360, 360],
        [10162, 10122, 0.00527, 0.0193, 0.06156, 99999, 408, 408, 0, 0, 1, -360, 360],
        [10164, 10165, 0.00323, 0.03369, 1.40518, 99999, 1746, 1746, 0, 0, 1, -360, 360],
        [10164, 10080, 6e-05, 0.00059, 0.02467, 99999, 1746, 1746, 0, 0, 1, -360, 360],
        [10092, 10089, 0.00046, 0.00474, 0.01943, 99999, 960, 960, 0, 0, 1, -360, 360],
        [10164, 10080, 6e-05, 0.00059, 0.02467, 99999, 1746, 1746, 0, 0, 1, -360, 360],
        [10165, 10091, 0.00067, 0.00696, 0.2904, 99999, 1746, 1746, 0, 0, 1, -360, 360],
        [10167, 10169, 8e-05, 0.00067, 0.02976, 99999, 1884, 1884, 0, 0, 1, -360, 360],
        [10168, 10170, 8e-05, 0.00067, 0.02976, 99999, 1884, 1884, 0, 0, 1, -360, 360],
        [10310, 10311, 8e-05, 0.00041, 0, 99999, 111, 111, 0, 0, 1, -360, 360],
        [10330, 10359, 0.01322, 0.04793, 0.0092, 99999, 204, 204, 0, 0, 1, -360, 360],
        [10331, 10359, 0.01322, 0.04793, 0.0092, 99999, 204, 204, 0, 0, 1, -360, 360],
        [10092, 10157, 0.00627, 0.02339, 0.07357, 99999, 343, 343, 0, 0, 1, -360, 360],
        [10346, 10347, 8e-05, 0.00041, 0, 99999, 150, 150, 0, 0, 1, -360, 360],
        [10359, 10310, 0.02975, 0.10992, 0.0219, 99999, 204, 204, 0, 0, 1, -360, 360],
        [10359, 10311, 0.02975, 0.10992, 0.0219, 99999, 204, 204, 0, 0, 1, -360, 360],
        [10359, 10346, 0.01157, 0.04298, 0.00859, 99999, 183, 183, 0, 0, 1, -360, 360],
        [10359, 10347, 0.01157, 0.04298, 0.00859, 99999, 183, 183, 0, 0, 1, -360, 360],
        [10301, 10319, 0.01298, 0.09959, 0.01949, 99999, 229, 229, 0, 0, 1, -360, 360],
        [10301, 10319, 0.01298, 0.09959, 0.01949, 99999, 229, 229, 0, 0, 1, -360, 360],
        [10301, 10327, 0.03223, 0.16033, 0.03037, 99999, 229, 229, 0, 0, 1, -360, 360],
        [10093, 10088, 0.00046, 0.00474, 0.01943, 99999, 960, 960, 0, 0, 1, -360, 360],
        [10301, 10327, 0.03223, 0.16033, 0.03037, 99999, 229, 229, 0, 0, 1, -360, 360],
        [10313, 10314, 1e-05, 0.00041, 0, 99999, 381, 381, 0, 0, 1, -360, 360],
        [10315, 10316, 1e-05, 0.00041, 0, 99999, 191, 191, 0, 0, 1, -360, 360],
        [10315, 10317, 1e-05, 0.00041, 0, 99999, 191, 191, 0, 0, 1, -360, 360],
        [10339, 10313, 0.00012, 0.00118, 0.00028, 99999, 389, 389, 0, 0, 1, -360, 360],
        [10339, 10340, 1e-05, 0.00041, 0, 99999, 381, 381, 0, 0, 1, -360, 360],
        [10340, 10314, 7e-05, 0.00066, 0.00016, 99999, 389, 389, 0, 0, 1, -360, 360],
        [10354, 10353, 1e-05, 0.00041, 0, 99999, 381, 381, 0, 0, 1, -360, 360],
        [10303, 10304, 8e-05, 0.00041, 0, 99999, 229, 229, 0, 0, 1, -360, 360],
        [10093, 10157, 0.0064, 0.02314, 0.07299, 99999, 343, 343, 0, 0, 1, -360, 360],
        [10322, 10323, 8e-05, 0.00041, 0, 99999, 114, 114, 0, 0, 1, -360, 360],
        [10099, 10115, 0.00014, 0.00127, 0.0568, 99999, 1746, 1746, 0, 0, 1, -360, 360],
        [10084, 10087, 7e-05, 0.00077, 0.4808, 99999, 1351, 1351, 0, 0, 1, -360, 360],
        [10099, 10116, 0.00014, 0.00127, 0.0568, 99999, 1746, 1746, 0, 0, 1, -360, 360],
        [10099, 10145, 0.00091, 0.00842, 0.37584, 99999, 1386, 1386, 0, 0, 1, -360, 360],
        [10099, 10145, 0.00091, 0.00842, 0.37584, 99999, 1386, 1386, 0, 0, 1, -360, 360],
        [10099, 10158, 0.00115, 0.01064, 0.47546, 99999, 1884, 1884, 0, 0, 1, -360, 360],
        [10099, 10158, 0.00115, 0.01064, 0.47546, 99999, 1884, 1884, 0, 0, 1, -360, 360],
        [10099, 10079, 0.00206, 0.01905, 0.85158, 99999, 1884, 1884, 0, 0, 1, -360, 360],
        [10099, 10079, 0.00206, 0.01905, 0.85158, 99999, 1884, 1884, 0, 0, 1, -360, 360],
        [10100, 10118, 0.00034, 0.00354, 0.1544, 99999, 1732, 1732, 0, 0, 1, -360, 360],
        [10100, 10118, 0.00034, 0.00354, 0.1544, 99999, 1732, 1732, 0, 0, 1, -360, 360],
        [10100, 10151, 0.00075, 0.00744, 0.3264, 99999, 1386, 1386, 0, 0, 1, -360, 360],
        [10084, 10087, 7e-05, 0.00076, 0.51264, 99999, 1351, 1351, 0, 0, 1, -360, 360],
        [10100, 10151, 0.00075, 0.00744, 0.3264, 99999, 1386, 1386, 0, 0, 1, -360, 360],
        [10100, 10153, 0.00144, 0.01506, 0.6592, 99999, 1386, 1386, 0, 0, 1, -360, 360],
        [10100, 10153, 0.00144, 0.01506, 0.6592, 99999, 1386, 1386, 0, 0, 1, -360, 360],
        [10101, 10135, 0.01399, 0.05116, 0.16408, 99999, 343, 343, 0, 0, 1, -360, 360],
        [10101, 10137, 0.0049, 0.01791, 0.0574, 99999, 343, 343, 0, 0, 1, -360, 360],
        [10102, 10166, 0.00909, 0.03285, 0.10503, 99999, 343, 343, 0, 0, 1, -360, 360],
        [10102, 10166, 0.00909, 0.03285, 0.10503, 99999, 343, 343, 0, 0, 1, -360, 360],
        [10103, 10104, 0.00125, 0.00625, 0, 99999, 1386, 1386, 0, 0, 1, -360, 360],
        [10103, 10120, 0.00061, 0.00564, 0.252, 99999, 1884, 1884, 0, 0, 1, -360, 360],
        [10103, 10120, 0.00061, 0.00564, 0.252, 99999, 1884, 1884, 0, 0, 1, -360, 360],
        [10085, 10084, 8e-05, 0.00095, 0.58816, 99999, 1351, 1351, 0, 0, 1, -360, 360],
        [10103, 10150, 0.00013, 0.00119, 0.05328, 99999, 1884, 1884, 0, 0, 1, -360, 360],
        [10105, 10148, 0.00492, 0.01798, 0.05731, 99999, 408, 408, 0, 0, 1, -360, 360],
        [10105, 10149, 0.00492, 0.01798, 0.05731, 99999, 408, 408, 0, 0, 1, -360, 360],
        [10106, 10147, 0.00131, 0.01339, 0.58672, 99999, 1386, 1386, 0, 0, 1, -360, 360],
        [10106, 10151, 0.00056, 0.00584, 0.25616, 99999, 1386, 1386, 0, 0, 1, -360, 360],
        [10107, 10109, 0.00014, 0.00127, 0.0568, 99999, 1386, 1386, 0, 0, 1, -360, 360],
        [10108, 10110, 0.00014, 0.00127, 0.0568, 99999, 1386, 1386, 0, 0, 1, -360, 360],
        [10111, 10158, 0.00118, 0.01186, 0.50192, 99999, 1746, 1746, 0, 0, 1, -360, 360],
        [10111, 10081, 0.00051, 0.00528, 0.22019, 99999, 1746, 1746, 0, 0, 1, -360, 360],
        [10112, 10159, 0.00153, 0.00561, 0.01801, 99999, 408, 408, 0, 0, 1, -360, 360],
        [10085, 10086, 0, 6e-05, 0, 99999, 2079, 2079, 0, 0, 1, -360, 360],
        [10112, 10159, 0.00109, 0.004, 0.01284, 99999, 408, 408, 0, 0, 1, -360, 360],
        [10112, 10159, 0.00109, 0.004, 0.01284, 99999, 408, 408, 0, 0, 1, -360, 360],
        [10113, 10141, 0.00031, 0.00286, 0.12781, 99999, 1884, 1884, 0, 0, 1, -360, 360],
        [10113, 10153, 0.00037, 0.00343, 0.15334, 99999, 1884, 1884, 0, 0, 1, -360, 360],
        [10114, 10127, 0.01116, 0.04091, 0.13068, 99999, 366, 366, 0, 0, 1, -360, 360],
        [10183, 10198, 0.00084, 0.01065, 0.39616, 99999, 831, 831, 0, 0, 1, -360, 360],
        [10183, 10217, 0.00146, 0.01809, 0.63888, 99999, 831, 831, 0, 0, 1, -360, 360],
        [10184, 10199, 0.01019, 0.06849, 0.1012, 99999, 326, 326, 0, 0, 1, -360, 360],
        [10184, 10209, 0.01204, 0.06105, 0.08659, 99999, 274, 274, 0, 0, 1, -360, 360],
        [10184, 10216, 0.01029, 0.0401, 0.10522, 99999, 274, 274, 0, 0, 1, -360, 360],
        [10185, 10205, 0.00065, 0.00657, 0.2224, 99999, 831, 831, 0, 0, 1, -360, 360],
        [10186, 10199, 0.00155, 0.01508, 0.02396, 99999, 535, 535, 0, 0, 1, -360, 360],
        [10187, 10200, 0.00156, 0.01518, 0.02415, 99999, 535, 535, 0, 0, 1, -360, 360],
        [10188, 10183, 0.00057, 0.00724, 0.26592, 99999, 831, 831, 0, 0, 1, -360, 360],
        [10189, 10198, 0.00028, 0.00346, 0.1312, 99999, 831, 831, 0, 0, 1, -360, 360],
        [10192, 10193, 0, 0.0001, 0, 99999, 762, 762, 0, 0, 1, -360, 360],
        [10192, 10222, 0.00488, 0.0332, 0.05542, 99999, 346, 346, 0, 0, 1, -360, 360],
        [10196, 10208, 0.00059, 0.00752, 0.26672, 99999, 1386, 1386, 0, 0, 1, -360, 360],
        [10197, 10215, 0.00092, 0.01193, 0.47104, 99999, 1109, 1109, 0, 0, 1, -360, 360],
        [10198, 10208, 0.00081, 0.00867, 0.27808, 99999, 831, 831, 0, 0, 1, -360, 360],
        [10199, 10200, 0, 0.0001, 0, 99999, 762, 762, 0, 0, 1, -360, 360],
        [10199, 10211, 0.00752, 0.04678, 0.06534, 99999, 323, 323, 0, 0, 1, -360, 360],
        [10201, 10213, 0.00112, 0.01179, 0.35472, 99999, 738, 738, 0, 0, 1, -360, 360],
        [10201, 10220, 0.00156, 0.01658, 0.4112, 99999, 738, 738, 0, 0, 1, -360, 360],
        [10202, 10193, 0.01, 0.06793, 0.1134, 99999, 274, 274, 0, 0, 1, -360, 360],
        [10202, 10203, 0, 0.0001, 0, 99999, 762, 762, 0, 0, 1, -360, 360],
        [10202, 10206, 0.03436, 0.16971, 0.24563, 99999, 271, 271, 0, 0, 1, -360, 360],
        [10202, 10222, 0.00595, 0.04035, 0.06732, 99999, 274, 274, 0, 0, 1, -360, 360],
        [10204, 10210, 0.00214, 0.02232, 0.71616, 99999, 831, 831, 0, 0, 1, -360, 360],
        [10205, 10213, 0.00154, 0.01628, 0.52272, 99999, 831, 831, 0, 0, 1, -360, 360],
        [10205, 10215, 0.00078, 0.00855, 0.2736, 99999, 1109, 1109, 0, 0, 1, -360, 360],
        [10205, 10217, 0.00108, 0.01152, 0.352, 99999, 1109, 1109, 0, 0, 1, -360, 360],
        [10206, 10216, 0.01105, 0.05364, 0.07957, 99999, 271, 271, 0, 0, 1, -360, 360],
        [10207, 10210, 0.00185, 0.01772, 0.57632, 99999, 831, 831, 0, 0, 1, -360, 360],
        [10207, 10220, 0.00156, 0.01757, 0.552, 99999, 831, 831, 0, 0, 1, -360, 360],
        [10208, 10214, 0.00058, 0.0082, 0.28864, 99999, 831, 831, 0, 0, 1, -360, 360],
        [10212, 10216, 0.00504, 0.0312, 0.05087, 99999, 137, 137, 0, 0, 1, -360, 360],
        [10212, 10216, 0.00504, 0.0312, 0.05087, 99999, 137, 137, 0, 0, 1, -360, 360],
        [10215, 10217, 0.00033, 0.00346, 0.1112, 99999, 1386, 1386, 0, 0, 1, -360, 360],
        [10218, 10190, 0.0001, 0.00123, 0.04912, 99999, 831, 831, 0, 0, 1, -360, 360],
        [10218, 10197, 0.00086, 0.01148, 0.4, 99999, 1386, 1386, 0, 0, 1, -360, 360],
        [10218, 10204, 0.00026, 0.00286, 0.08848, 99999, 866, 866, 0, 0, 1, -360, 360],
        [10218, 10219, 0, 6e-05, 0, 99999, 1386, 1386, 0, 0, 1, -360, 360],
        [10219, 10191, 0.0001, 0.00124, 0.04976, 99999, 831, 831, 0, 0, 1, -360, 360],
        [10219, 10198, 0.00104, 0.01237, 0.37936, 99999, 1109, 1109, 0, 0, 1, -360, 360],
        [10219, 10204, 0.00026, 0.00307, 0.1088, 99999, 866, 866, 0, 0, 1, -360, 360],
        [10220, 10194, 9e-05, 0.00101, 0.03168, 99999, 499, 499, 0, 0, 1, -360, 360],
        [10220, 10195, 9e-05, 0.00097, 0.03072, 99999, 499, 499, 0, 0, 1, -360, 360],
        [10114, 10128, 0.01116, 0.04091, 0.13068, 99999, 366, 366, 0, 0, 1, -360, 360],
        [10180, 10064, 0.01085, 0.05289, 0.08301, 99999, 269, 269, 0, 0, 1, -360, 360],
        [10181, 10064, 0.01085, 0.05289, 0.08301, 99999, 269, 269, 0, 0, 1, -360, 360],
        [10182, 10063, 0.00065, 0.00924, 0.276, 99999, 1386, 1386, 0, 0, 1, -360, 360],
        [10178, 10204, 0.00078, 0.00875, 0.13616, 99999, 1330, 1330, 0, 0, 1, -360, 360],
        [10114, 10148, 0.00864, 0.03777, 0.0848, 99999, 301, 301, 0, 0, 1, -360, 360],
        [10179, 10196, 0.00036, 0.00429, 0.1168, 99999, 1330, 1330, 0, 0, 1, -360, 360],
        [10039, 10078, 0.00101, 0.01281, 0.6424, 99999, 1386, 1386, 0, 0, 1, -360, 360],
        [10039, 10038, 0.00106, 0.01368, 0.5168, 99999, 1386, 1386, 0, 0, 1, -360, 360],
        [10043, 10209, 0.00839, 0.04277, 0.06002, 99999, 274, 274, 0, 0, 1, -360, 360],
        [10043, 10044, 0.00839, 0.04277, 0.06026, 99999, 269, 269, 0, 0, 1, -360, 360],
        [10049, 10217, 0.00075, 0.0072, 0.21824, 99999, 1386, 1386, 0, 0, 1, -360, 360],
        [10049, 10048, 0.00068, 0.00728, 0.2176, 99999, 1386, 1386, 0, 0, 1, -360, 360],
        [10057, 10078, 0.00067, 0.00819, 0.47648, 99999, 1663, 1663, 0, 0, 1, -360, 360],
        [10057, 10056, 0.00075, 0.0091, 0.356, 99999, 1732, 1732, 0, 0, 1, -360, 360],
        [10114, 10155, 0.0045, 0.01649, 0.05256, 99999, 301, 301, 0, 0, 1, -360, 360],
        [10066, 10198, 0.00118, 0.01209, 0.3728, 99999, 1323, 1323, 0, 0, 1, -360, 360],
        [10066, 10065, 0.00118, 0.01209, 0.3728, 99999, 1386, 1386, 0, 0, 1, -360, 360],
        [10067, 10211, 0.00627, 0.04117, 0.06002, 99999, 326, 326, 0, 0, 1, -360, 360],
        [10067, 10064, 0.00627, 0.04117, 0.05808, 99999, 318, 318, 0, 0, 1, -360, 360],
        [10068, 10214, 0.00069, 0.0089, 0.32384, 99999, 831, 831, 0, 0, 1, -360, 360],
        [10068, 10065, 0.00069, 0.0089, 0.324, 99999, 866, 866, 0, 0, 1, -360, 360],
        [10221, 10220, 0.00053, 0.00544, 0.06784, 99999, 831, 831, 0, 0, 1, -360, 360],
        [10221, 10223, 0.00052, 0.00544, 0.136, 99999, 1247, 1247, 0, 0, 1, -360, 360],
...
    ])

    ##-----  OPF Data  -----##
    ## generator cost data
    # 1 startup shutdown n x1 y1 ... xn yn
    # 2 startup shutdown n c(n-1) ... c0
    ppc['gencost'] = array([
        [2, 0, 0, 3, 0, 198.86, 0],
        [2, 0, 0, 3, 0, 240.26, 0],
        [2, 0, 0, 3, 0, 240.26, 0],
        [2, 0, 0, 3, 0, 240.26, 0],
        [2, 0, 0, 3, 0, 240.26, 0],
        [2, 0, 0, 3, 0, 240.26, 0],
        [2, 0, 0, 3, 0, 240.26, 0],
        [2, 0, 0, 3, 0, 240.26, 0],
        [2, 0, 0, 3, 0, 240.26, 0],
        [2, 0, 0, 3, 0, 240.26, 0],
        [2, 0, 0, 3, 0, 240.26, 0],
        [2, 0, 0, 3, 0, 240.26, 0],
        [2, 0, 0, 3, 0, 240.26, 0],
        [2, 0, 0, 3, 0, 240.26, 0],
        [2, 0, 0, 3, 0, 240.26, 0],
        [2, 0, 0, 3, 0, 240.26, 0],
        [2, 0, 0, 3, 0, 240.26, 0],
        [2, 0, 0, 3, 0, 240.26, 0],
        [2, 0, 0, 3, 0, 240.26, 0],
        [2, 0, 0, 3, 0, 240.26, 0],
        [2, 0, 0, 3, 0, 240.26, 0],
        [2, 0, 0, 3, 0, 240.26, 0],
        [2, 0, 0, 3, 0, 236.7, 0],
        [2, 0, 0, 3, 0, 236.7, 0],
        [2, 0, 0, 3, 0, 236.7, 0],
        [2, 0, 0, 3, 0, 236.7, 0],
        [2, 0, 0, 3, 0, 236.7, 0],
        [2, 0, 0, 3, 0, 236.7, 0],
        [2, 0, 0, 3, 0, 236.7, 0],
        [2, 0, 0, 3, 0, 236.7, 0],
        [2, 0, 0, 3, 0, 236.7, 0],
        [2, 0, 0, 3, 0, 100, 0],
        [2, 0, 0, 3, 0, 198.86, 0],
        [2, 0, 0, 3, 0, 198.86, 0],
        [2, 0, 0, 3, 0, 198.86, 0],
        [2, 0, 0, 3, 0, 198.86, 0],
        [2, 0, 0, 3, 0, 198.86, 0],
        [2, 0, 0, 3, 0, 198.86, 0],
        [2, 0, 0, 3, 0, 198.86, 0],
        [2, 0, 0, 3, 0, 198.86, 0],
        [2, 0, 0, 3, 0, 198.86, 0],
        [2, 0, 0, 3, 0, 198.86, 0],
        [2, 0, 0, 3, 0, 198.86, 0],
        [2, 0, 0, 3, 0, 198.86, 0],
        [2, 0, 0, 3, 0, 198.86, 0],
        [2, 0, 0, 3, 0, 198.86, 0],
        [2, 0, 0, 3, 0, 198.86, 0],
        [2, 0, 0, 3, 0, 198.86, 0],
        [2, 0, 0, 3, 0, 198.86, 0],
        [2, 0, 0, 3, 0, 198.86, 0],
        [2, 0, 0, 3, 0, 198.86, 0],
        [2, 0, 0, 3, 0, 198.86, 0],
        [2, 0, 0, 3, 0, 198.86, 0],
        [2, 0, 0, 3, 0, 198.86, 0],
        [2, 0, 0, 3, 0, 198.86, 0],
        [2, 0, 0, 3, 0, 198.86, 0],
        [2, 0, 0, 3, 0, 198.86, 0],
        [2, 0, 0, 3, 0, 198.86, 0],
        [2, 0, 0, 3, 0, 198.86, 0],
        [2, 0, 0, 3, 0, 198.86, 0],
        [2, 0, 0, 3, 0, 198.86, 0],
        [2, 0, 0, 3, 0, 198.86, 0],
        [2, 0, 0, 3, 0, 198.86, 0],
        [2, 0, 0, 3, 0, 198.86, 0],
        [2, 0, 0, 3, 0, 198.86, 0],
        [2, 0, 0, 3, 0, 198.86, 0],
        [2, 0, 0, 3, 0, 198.86, 0],
        [2, 0, 0, 3, 0, 198.86, 0],
        [2, 0, 0, 3, 0, 198.86, 0],
        [2, 0, 0, 3, 0, 198.86, 0],
        [2, 0, 0, 3, 0, 198.86, 0],
        [2, 0, 0, 3, 0, 198.86, 0],
        [2, 0, 0, 3, 0, 198.86, 0],
        [2, 0, 0, 3, 0, 198.86, 0],
        [2, 0, 0, 3, 0, 198.86, 0],
        [2, 0, 0, 3, 0, 198.86, 0],
        [2, 0, 0, 3, 0, 198.86, 0],
        [2, 0, 0, 3, 0, 198.86, 0],
        [2, 0, 0, 3, 0, 198.86, 0],
        [2, 0, 0, 3, 0, 198.86, 0],
        [2, 0, 0, 3, 0, 198.86, 0],
        [2, 0, 0, 3, 0, 198.86, 0],
        [2, 0, 0, 3, 0, 198.86, 0],
        [2, 0, 0, 3, 0, 198.86, 0],
        [2, 0, 0, 3, 0, 198.86, 0],
        [2, 0, 0, 3, 0, 198.86, 0],
        [2, 0, 0, 3, 0, 198.86, 0],
        [2, 0, 0, 3, 0, 198.86, 0],
        [2, 0, 0, 3, 0, 198.86, 0],
        [2, 0, 0, 3, 0, 198.86, 0],
        [2, 0, 0, 3, 0, 198.86, 0],
        [2, 0, 0, 3, 0, 198.86, 0],
        [2, 0, 0, 3, 0, 198.86, 0],
        [2, 0, 0, 3, 0, 198.86, 0],
        [2, 0, 0, 3, 0, 158.61, 0],
        [2, 0, 0, 3, 0, 158.61, 0],
        [2, 0, 0, 3, 0, 107.03, 0],
        [2, 0, 0, 3, 0, 107.03, 0],
        [2, 0, 0, 3, 0, 107.03, 0],
        [2, 0, 0, 3, 0, 107.03, 0],
        [2, 0, 0, 3, 0, 107.03, 0],
        [2, 0, 0, 3, 0, 107.03, 0],
        [2, 0, 0, 3, 0, 107.03, 0],
        [2, 0, 0, 3, 0, 107.03, 0],
        [2, 0, 0, 3, 0, 107.03, 0],
        [2, 0, 0, 3, 0, 107.03, 0],
        [2, 0, 0, 3, 0, 107.03, 0],
        [2, 0, 0, 3, 0, 143.52, 0],
        [2, 0, 0, 3, 0, 143.52, 0],
        [2, 0, 0, 3, 0, 143.52, 0],
        [2, 0, 0, 3, 0, 143.52, 0],
        [2, 0, 0, 3, 0, 143.52, 0],
        [2, 0, 0, 3, 0, 143.52, 0],
        [2, 0, 0, 3, 0, 143.52, 0],
        [2, 0, 0, 3, 0, 143.52, 0],
        [2, 0, 0, 3, 0, 148.16, 0],
        [2, 0, 0, 3, 0, 148.16, 0],
        [2, 0, 0, 3, 0, 148.16, 0],
        [2, 0, 0, 3, 0, 148.16, 0],
        [2, 0, 0, 3, 0, 148.16, 0],
        [2, 0, 0, 3, 0, 148.16, 0],
        [2, 0, 0, 3, 0, 148.16, 0],
        [2, 0, 0, 3, 0, 0, 0],
        [2, 0, 0, 3, 0, 134.04, 0],
        [2, 0, 0, 3, 0, 134.04, 0],
        [2, 0, 0, 3, 0, 134.04, 0],
        [2, 0, 0, 3, 0, 134.04, 0],
        [2, 0, 0, 3, 0, 134.04, 0],
        [2, 0, 0, 3, 0, 126.62, 0],
        [2, 0, 0, 3, 0, 126.62, 0],
        [2, 0, 0, 3, 0, 0, 0],
        [2, 0, 0, 3, 0, 0, 0],
        [2, 0, 0, 3, 0, 130.49, 0],
        [2, 0, 0, 3, 0, 130.49, 0],
        [2, 0, 0, 3, 0, 132.33, 0],
        [2, 0, 0, 3, 0, 132.33, 0],
        [2, 0, 0, 3, 0, 136.59, 0],
        [2, 0, 0, 3, 0, 136.59, 0],
        [2, 0, 0, 3, 0, 139.96, 0],
        [2, 0, 0, 3, 0, 128.21, 0],
        [2, 0, 0, 3, 0, 128.21, 0],
        [2, 0, 0, 3, 0, 128.21, 0],
        [2, 0, 0, 3, 0, 128.21, 0],
        [2, 0, 0, 3, 0, 128.21, 0],
        [2, 0, 0, 3, 0, 137.4, 0],
        [2, 0, 0, 3, 0, 137.4, 0],
        [2, 0, 0, 3, 0, 137.4, 0],
        [2, 0, 0, 3, 0, 137.4, 0],
        [2, 0, 0, 3, 0, 129.99, 0],
        [2, 0, 0, 3, 0, 129.99, 0],
        [2, 0, 0, 3, 0, 129.99, 0],
        [2, 0, 0, 3, 0, 135.6, 0],
        [2, 0, 0, 3, 0, 135.6, 0],
        [2, 0, 0, 3, 0, 135.6, 0],
        [2, 0, 0, 3, 0, 163.16, 0],
        [2, 0, 0, 3, 0, 163.16, 0],
        [2, 0, 0, 3, 0, 163.16, 0],
        [2, 0, 0, 3, 0, 163.16, 0],
        [2, 0, 0, 3, 0, 163.16, 0],
        [2, 0, 0, 3, 0, 163.16, 0],
        [2, 0, 0, 3, 0, 163.16, 0],
        [2, 0, 0, 3, 0, 139.01, 0],
        [2, 0, 0, 3, 0, 139.01, 0],
        [2, 0, 0, 3, 0, 139.01, 0],
        [2, 0, 0, 3, 0, 139.01, 0],
        [2, 0, 0, 3, 0, 139.01, 0],
        [2, 0, 0, 3, 0, 139.01, 0],
        [2, 0, 0, 3, 0, 139.01, 0],
        [2, 0, 0, 3, 0, 139.01, 0],
        [2, 0, 0, 3, 0, 125.48, 0],
        [2, 0, 0, 3, 0, 125.48, 0],
        [2, 0, 0, 3, 0, 125.48, 0],
        [2, 0, 0, 3, 0, 125.48, 0],
        [2, 0, 0, 3, 0, 125.48, 0],
        [2, 0, 0, 3, 0, 137.4, 0],
        [2, 0, 0, 3, 0, 137.4, 0],
        [2, 0, 0, 3, 0, 137.4, 0],
        [2, 0, 0, 3, 0, 137.4, 0],
        [2, 0, 0, 3, 0, 137.4, 0],
        [2, 0, 0, 3, 0, 0, 0],
        [2, 0, 0, 3, 0, 0, 0],
        [2, 0, 0, 3, 0, 0, 0],
        [2, 0, 0, 3, 0, 0, 0],
        [2, 0, 0, 3, 0, 0, 0],
        [2, 0, 0, 3, 0, 0, 0],
        [2, 0, 0, 3, 0, 0, 0],
        [2, 0, 0, 3, 0, 0, 0],
        [2, 0, 0, 3, 0, 0, 0],
        [2, 0, 0, 3, 0, 0, 0],
        [2, 0, 0, 3, 0, 0, 0],
        [2, 0, 0, 3, 0, 0, 0],
        [2, 0, 0, 3, 0, 0, 0],
        [2, 0, 0, 3, 0, 107.03, 0],
        [2, 0, 0, 3, 0, 0, 0],
        [2, 0, 0, 3, 0, 0, 0],
        [2, 0, 0, 3, 0, 0, 0],
        [2, 0, 0, 3, 0, 0, 0],
        [2, 0, 0, 3, 0, 0, 0],
        [2, 0, 0, 3, 0, 0, 0],
...